Circuit: * C:\Users\cheem\OneDrive\Desktop\Course Books\Draft1.asc

WARNING: Less than two connections to node v1.  This node is used by r5.
WARNING: Less than two connections to node nc_01.  This node is used by v1.
.OP point found by inspection.

Date: Tue Dec 26 22:22:46 2023
Total elapsed time: 0.033 seconds.

tnom = 27
temp = 27
method = trap
totiter = 0
traniter = 0
tranpoints = 0
accept = 0
rejected = 0
matrix size = 7
fillins = 0
solver = Normal
Avg thread counts: 4.0/0.0/0.0/4.0
Matrix Compiler1: off
Matrix Compiler2: off
