Circuit: * C:\Users\cheem\OneDrive\Desktop\Course Books\Draft2.asc

.OP point found by inspection.

Date: Wed Nov  8 13:29:04 2023
Total elapsed time: 0.396 seconds.

tnom = 27
temp = 27
method = modified trap
totiter = 2082
traniter = 2082
tranpoints = 1042
accept = 1042
rejected = 0
matrix size = 3
fillins = 0
solver = Normal
Avg thread counts: 1.6/2.2/2.2/1.6
Matrix Compiler1:       3 opcodes  0.7/[0.6]/0.6
Matrix Compiler2: 175 bytes object code size  0.8/1.1/[0.4]

